
OS:Version,
  {5cc120b5-76e1-4443-acab-169b006bc619}, !- Handle
  2.9.1;                                  !- Version Identifier

OS:Site,
  {f087a838-c0bd-439a-b6a1-799fceca61c3}, !- Handle
  CHICAGO_IL_USA TMY2-94846,              !- Name
  41.78,                                  !- Latitude {deg}
  -87.75,                                 !- Longitude {deg}
  -6,                                     !- Time Zone {hr}
  190,                                    !- Elevation {m}
  City;                                   !- Terrain

OS:SimulationControl,
  {0ed4dc1f-564f-4780-a155-8d4946e4233a}, !- Handle
  Yes,                                    !- Do Zone Sizing Calculation
  Yes,                                    !- Do System Sizing Calculation
  Yes,                                    !- Do Plant Sizing Calculation
  No,                                     !- Run Simulation for Sizing Periods
  Yes,                                    !- Run Simulation for Weather File Run Periods
  0.04,                                   !- Loads Convergence Tolerance Value
  0.4,                                    !- Temperature Convergence Tolerance Value {deltaC}
  FullExterior,                           !- Solar Distribution
  25,                                     !- Maximum Number of Warmup Days
  6;                                      !- Minimum Number of Warmup Days

OS:Building,
  {ac0a43a8-977f-4b67-adbe-ee45028035be}, !- Handle
  Building,                               !- Name
  ,                                       !- Building Sector Type
  30,                                     !- North Axis {deg}
  ,                                       !- Nominal Floor to Floor Height {m}
  ,                                       !- Space Type Name
  ,                                       !- Default Construction Set Name
  ;                                       !- Default Schedule Set Name

OS:Timestep,
  {79573d8e-b5a6-422c-a82f-4c4de1a603ce}, !- Handle
  4;                                      !- Number of Timesteps per Hour

OS:HeatBalanceAlgorithm,
  {e9b4955b-56a2-4028-a75a-1d4ff1db2679}, !- Handle
  ConductionTransferFunction,             !- Algorithm
  200;                                    !- Surface Temperature Upper Limit {C}

OS:ScheduleTypeLimits,
  {4ea41987-005a-4b9c-a972-b07c1aeec5bc}, !- Handle
  {366e27ad-7560-4d11-b08f-087ac4955511}; !- Name

OS:ScheduleTypeLimits,
  {69839a8b-8383-4396-93b7-57575e5e7f1a}, !- Handle
  Fraction,                               !- Name
  0,                                      !- Lower Limit Value
  1,                                      !- Upper Limit Value
  CONTINUOUS;                             !- Numeric Type

OS:ScheduleTypeLimits,
  {9b606cea-9cd6-4d0b-8e1d-23d1637888a9}, !- Handle
  Temperature,                            !- Name
  -60,                                    !- Lower Limit Value
  200,                                    !- Upper Limit Value
  CONTINUOUS,                             !- Numeric Type
  Temperature;                            !- Unit Type

OS:ScheduleTypeLimits,
  {8e90f8c3-5925-431d-a35b-bab499a52ffe}, !- Handle
  Control Type,                           !- Name
  0,                                      !- Lower Limit Value
  4,                                      !- Upper Limit Value
  DISCRETE,                               !- Numeric Type
  ControlMode;                            !- Unit Type

OS:ScheduleTypeLimits,
  {b8dcf176-ba6e-42e6-88a8-493b18681cab}, !- Handle
  On/Off,                                 !- Name
  0,                                      !- Lower Limit Value
  1,                                      !- Upper Limit Value
  DISCRETE,                               !- Numeric Type
  Availability;                           !- Unit Type

OS:ScheduleTypeLimits,
  {20882a16-3aa4-4819-8723-f7beea5d3097}, !- Handle
  FlowRate,                               !- Name
  0,                                      !- Lower Limit Value
  10,                                     !- Upper Limit Value
  CONTINUOUS;                             !- Numeric Type

OS:RunPeriod,
  {a59201a2-c7b0-4ac0-938f-48c30f2f1d31}, !- Handle
  Run Period 1,                           !- Name
  1,                                      !- Begin Month
  1,                                      !- Begin Day of Month
  12,                                     !- End Month
  31,                                     !- End Day of Month
  Yes,                                    !- Use Weather File Holidays and Special Days
  Yes,                                    !- Use Weather File Daylight Saving Period
  No,                                     !- Apply Weekend Holiday Rule
  Yes,                                    !- Use Weather File Rain Indicators
  Yes,                                    !- Use Weather File Snow Indicators
  ;                                       !- Number of Times Runperiod to be Repeated

OS:YearDescription,
  {a0542057-11be-4bfa-b56e-4f2904028962}, !- Handle
  ,                                       !- Calendar Year
  Tuesday;                                !- Day of Week for Start Day

OS:SizingPeriod:DesignDay,
  {5ddec568-1954-4a27-af01-2760ce5a7f2c}, !- Handle
  CHICAGO_IL_USA Annual Heating 99% Design Conditions DB, !- Name
  -17.3,                                  !- Maximum Dry-Bulb Temperature {C}
  0,                                      !- Daily Dry-Bulb Temperature Range {deltaC}
  -17.3,                                  !- Humidity Indicating Conditions at Maximum Dry-Bulb
  99063,                                  !- Barometric Pressure {Pa}
  4.9,                                    !- Wind Speed {m/s}
  270,                                    !- Wind Direction {deg}
  0,                                      !- Sky Clearness
  0,                                      !- Rain Indicator
  0,                                      !- Snow Indicator
  21,                                     !- Day of Month
  1,                                      !- Month
  WinterDesignDay,                        !- Day Type
  0,                                      !- Daylight Saving Time Indicator
  Wetbulb,                                !- Humidity Indicating Type
  ,                                       !- Humidity Indicating Day Schedule Name
  ,                                       !- Dry-Bulb Temperature Range Modifier Type
  ,                                       !- Dry-Bulb Temperature Range Modifier Schedule Name
  ASHRAEClearSky;                         !- Solar Model Indicator

OS:SizingPeriod:DesignDay,
  {ce457f3b-7ec4-4711-9e04-4a358bc2efc0}, !- Handle
  CHICAGO_IL_USA Annual Cooling 1% Design Conditions DB/MCWB, !- Name
  31.5,                                   !- Maximum Dry-Bulb Temperature {C}
  10.7,                                   !- Daily Dry-Bulb Temperature Range {deltaC}
  23,                                     !- Humidity Indicating Conditions at Maximum Dry-Bulb
  99063,                                  !- Barometric Pressure {Pa}
  5.3,                                    !- Wind Speed {m/s}
  230,                                    !- Wind Direction {deg}
  1,                                      !- Sky Clearness
  0,                                      !- Rain Indicator
  0,                                      !- Snow Indicator
  21,                                     !- Day of Month
  7,                                      !- Month
  SummerDesignDay,                        !- Day Type
  0,                                      !- Daylight Saving Time Indicator
  Wetbulb,                                !- Humidity Indicating Type
  ,                                       !- Humidity Indicating Day Schedule Name
  ,                                       !- Dry-Bulb Temperature Range Modifier Type
  ,                                       !- Dry-Bulb Temperature Range Modifier Schedule Name
  ASHRAEClearSky;                         !- Solar Model Indicator

OS:Material,
  {dc9cca40-18df-404d-9e48-7e3f3a19511e}, !- Handle
  WD10,                                   !- Name
  MediumSmooth,                           !- Roughness
  0.667,                                  !- Thickness {m}
  0.115,                                  !- Conductivity {W/m-K}
  513,                                    !- Density {kg/m3}
  1381,                                   !- Specific Heat {J/kg-K}
  0.9,                                    !- Thermal Absorptance
  0.78,                                   !- Solar Absorptance
  0.78;                                   !- Visible Absorptance

OS:Material,
  {d299f95e-99d1-46dc-a57d-dbbf59e9526d}, !- Handle
  RG01,                                   !- Name
  Rough,                                  !- Roughness
  0.0127,                                 !- Thickness {m}
  1.442,                                  !- Conductivity {W/m-K}
  881,                                    !- Density {kg/m3}
  1674,                                   !- Specific Heat {J/kg-K}
  0.9,                                    !- Thermal Absorptance
  0.65,                                   !- Solar Absorptance
  0.65;                                   !- Visible Absorptance

OS:Material,
  {94486dda-818c-45f6-8cc1-0656bca7fd7a}, !- Handle
  BR01,                                   !- Name
  VeryRough,                              !- Roughness
  0.0094999997,                           !- Thickness {m}
  0.162,                                  !- Conductivity {W/m-K}
  1121,                                   !- Density {kg/m3}
  1464,                                   !- Specific Heat {J/kg-K}
  0.9,                                    !- Thermal Absorptance
  0.7,                                    !- Solar Absorptance
  0.7;                                    !- Visible Absorptance

OS:Material,
  {7a93aaa5-d561-40c0-a7eb-44a104607957}, !- Handle
  IN46,                                   !- Name
  VeryRough,                              !- Roughness
  0.076200001,                            !- Thickness {m}
  0.023,                                  !- Conductivity {W/m-K}
  24,                                     !- Density {kg/m3}
  1590,                                   !- Specific Heat {J/kg-K}
  0.9,                                    !- Thermal Absorptance
  0.5,                                    !- Solar Absorptance
  0.5;                                    !- Visible Absorptance

OS:Material,
  {06923d45-2100-4615-9e26-b293508fd369}, !- Handle
  WD01,                                   !- Name
  MediumSmooth,                           !- Roughness
  0.019099999,                            !- Thickness {m}
  0.115,                                  !- Conductivity {W/m-K}
  513,                                    !- Density {kg/m3}
  1381,                                   !- Specific Heat {J/kg-K}
  0.9,                                    !- Thermal Absorptance
  0.78,                                   !- Solar Absorptance
  0.78;                                   !- Visible Absorptance

OS:Material,
  {e5e229c9-099e-4c7e-b321-8eedf8f4db26}, !- Handle
  PW03,                                   !- Name
  MediumSmooth,                           !- Roughness
  0.0127,                                 !- Thickness {m}
  0.115,                                  !- Conductivity {W/m-K}
  545,                                    !- Density {kg/m3}
  1213,                                   !- Specific Heat {J/kg-K}
  0.9,                                    !- Thermal Absorptance
  0.78,                                   !- Solar Absorptance
  0.78;                                   !- Visible Absorptance

OS:Material,
  {92c07474-32a4-41ac-8d69-ff3f66b71ffa}, !- Handle
  IN02,                                   !- Name
  Rough,                                  !- Roughness
  0.090099998,                            !- Thickness {m}
  0.043000001,                            !- Conductivity {W/m-K}
  10,                                     !- Density {kg/m3}
  837,                                    !- Specific Heat {J/kg-K}
  0.9,                                    !- Thermal Absorptance
  0.75,                                   !- Solar Absorptance
  0.75;                                   !- Visible Absorptance

OS:Material,
  {1e4436a9-bec5-4ba9-a669-ba0d41b2fb08}, !- Handle
  GP01,                                   !- Name
  MediumSmooth,                           !- Roughness
  0.0127,                                 !- Thickness {m}
  0.16,                                   !- Conductivity {W/m-K}
  801,                                    !- Density {kg/m3}
  837,                                    !- Specific Heat {J/kg-K}
  0.9,                                    !- Thermal Absorptance
  0.75,                                   !- Solar Absorptance
  0.75;                                   !- Visible Absorptance

OS:Material,
  {2d3eb360-adce-44af-a3e4-5e3ebec28279}, !- Handle
  GP02,                                   !- Name
  MediumSmooth,                           !- Roughness
  0.015900001,                            !- Thickness {m}
  0.16,                                   !- Conductivity {W/m-K}
  801,                                    !- Density {kg/m3}
  837,                                    !- Specific Heat {J/kg-K}
  0.9,                                    !- Thermal Absorptance
  0.75,                                   !- Solar Absorptance
  0.75;                                   !- Visible Absorptance

OS:Material,
  {bb26bc04-cae8-4ad5-bceb-717ebb8fcc7a}, !- Handle
  CC03,                                   !- Name
  MediumRough,                            !- Roughness
  0.1016,                                 !- Thickness {m}
  1.31,                                   !- Conductivity {W/m-K}
  2243,                                   !- Density {kg/m3}
  837,                                    !- Specific Heat {J/kg-K}
  0.9,                                    !- Thermal Absorptance
  0.65,                                   !- Solar Absorptance
  0.65;                                   !- Visible Absorptance

OS:Material:NoMass,
  {e072fa1a-8dad-4cd8-aecf-f082a2ccd2f6}, !- Handle
  CP01,                                   !- Name
  Rough,                                  !- Roughness
  0.367,                                  !- Thermal Resistance {m2-K/W}
  0.9,                                    !- Thermal Absorptance
  0.75,                                   !- Solar Absorptance
  0.75;                                   !- Visible Absorptance

OS:Material:NoMass,
  {6b22d627-2442-4d09-a742-da8f93306730}, !- Handle
  MAT-CLNG-1,                             !- Name
  Rough,                                  !- Roughness
  0.65225929,                             !- Thermal Resistance {m2-K/W}
  0.65,                                   !- Thermal Absorptance
  0.65,                                   !- Solar Absorptance
  0.65;                                   !- Visible Absorptance

OS:Material:AirGap,
  {f89e90ea-d09c-4ea8-a471-1e18790814ed}, !- Handle
  AL21,                                   !- Name
  0.157;                                  !- Thermal Resistance {m2-K/W}

OS:Material:AirGap,
  {34efa154-423b-445e-acbc-ef5da6abe4aa}, !- Handle
  AL23,                                   !- Name
  0.153;                                  !- Thermal Resistance {m2-K/W}

OS:Construction,
  {0d5bd6da-f54f-4aa0-aef5-c915f2f3cb4c}, !- Handle
  ROOF-1,                                 !- Name
  {4832c274-4a34-4017-9c6f-aad4f2815941}, !- Surface Rendering Name
  {d299f95e-99d1-46dc-a57d-dbbf59e9526d}, !- Layer 1
  {94486dda-818c-45f6-8cc1-0656bca7fd7a}, !- Layer 2
  {7a93aaa5-d561-40c0-a7eb-44a104607957}, !- Layer 3
  {06923d45-2100-4615-9e26-b293508fd369}; !- Layer 4

OS:Construction,
  {231f8989-c62c-42cf-9740-8bdd7b30eb57}, !- Handle
  WALL-1,                                 !- Name
  {62e93801-9b30-4301-82ce-01e5beb877c8}, !- Surface Rendering Name
  {06923d45-2100-4615-9e26-b293508fd369}, !- Layer 1
  {e5e229c9-099e-4c7e-b321-8eedf8f4db26}, !- Layer 2
  {92c07474-32a4-41ac-8d69-ff3f66b71ffa}, !- Layer 3
  {1e4436a9-bec5-4ba9-a669-ba0d41b2fb08}; !- Layer 4

OS:Construction,
  {97c6c716-6889-4821-9b29-7598b9d80cf1}, !- Handle
  CLNG-1,                                 !- Name
  {3120652b-4922-4c24-a442-4738a3a98d5c}, !- Surface Rendering Name
  {6b22d627-2442-4d09-a742-da8f93306730}; !- Layer 1

OS:Construction,
  {8513d57d-2845-443b-a37c-0ca42c03af54}, !- Handle
  FLOOR-SLAB-1,                           !- Name
  {1d803777-90a5-4363-80a5-df38f5749d63}, !- Surface Rendering Name
  {bb26bc04-cae8-4ad5-bceb-717ebb8fcc7a}; !- Layer 1

OS:Construction,
  {4ad38116-e704-48a7-acc0-adc705309206}, !- Handle
  INT-WALL-1,                             !- Name
  {1e90f415-b39c-451b-ba16-3116a317cfeb}, !- Surface Rendering Name
  {2d3eb360-adce-44af-a3e4-5e3ebec28279}, !- Layer 1
  {f89e90ea-d09c-4ea8-a471-1e18790814ed}, !- Layer 2
  {2d3eb360-adce-44af-a3e4-5e3ebec28279}; !- Layer 3

OS:WindowMaterial:Gas,
  {84379ba1-64ae-4483-87b0-8119fbfd7a3d}, !- Handle
  AIR 13MM,                               !- Name
  Air,                                    !- Gas Type
  0.0127;                                 !- Thickness {m}

OS:WindowMaterial:Glazing,
  {e51b80d0-fd88-4461-83e0-a74c3b42d149}, !- Handle
  CLEAR 3MM,                              !- Name
  Spectral,                               !- Optical Data Type
  ,                                       !- Window Glass Spectral Data Set Name
  0.003,                                  !- Thickness {m}
  0.837,                                  !- Solar Transmittance at Normal Incidence
  0.075,                                  !- Front Side Solar Reflectance at Normal Incidence
  0.075,                                  !- Back Side Solar Reflectance at Normal Incidence
  0.898,                                  !- Visible Transmittance at Normal Incidence
  0.081,                                  !- Front Side Visible Reflectance at Normal Incidence
  0.081,                                  !- Back Side Visible Reflectance at Normal Incidence
  0,                                      !- Infrared Transmittance at Normal Incidence
  0.84,                                   !- Front Side Infrared Hemispherical Emissivity
  0.84,                                   !- Back Side Infrared Hemispherical Emissivity
  0.9;                                    !- Conductivity {W/m-K}

OS:WindowMaterial:Glazing,
  {6b32f0f3-93c9-45fb-8024-c8092a0bd1c9}, !- Handle
  GREY 3MM,                               !- Name
  Spectral,                               !- Optical Data Type
  ,                                       !- Window Glass Spectral Data Set Name
  0.003,                                  !- Thickness {m}
  0.626,                                  !- Solar Transmittance at Normal Incidence
  0.061,                                  !- Front Side Solar Reflectance at Normal Incidence
  0.061,                                  !- Back Side Solar Reflectance at Normal Incidence
  0.611,                                  !- Visible Transmittance at Normal Incidence
  0.061,                                  !- Front Side Visible Reflectance at Normal Incidence
  0.061,                                  !- Back Side Visible Reflectance at Normal Incidence
  0,                                      !- Infrared Transmittance at Normal Incidence
  0.84,                                   !- Front Side Infrared Hemispherical Emissivity
  0.84,                                   !- Back Side Infrared Hemispherical Emissivity
  0.9;                                    !- Conductivity {W/m-K}

OS:Construction,
  {20988b9b-e0b4-4bb3-a3ba-d23371da16ad}, !- Handle
  Dbl Clr 3mm/13mm Air,                   !- Name
  {66f7a4e5-8ada-47a4-866a-84738ac09dff}, !- Surface Rendering Name
  {e51b80d0-fd88-4461-83e0-a74c3b42d149}, !- Layer 1
  {84379ba1-64ae-4483-87b0-8119fbfd7a3d}, !- Layer 2
  {e51b80d0-fd88-4461-83e0-a74c3b42d149}; !- Layer 3

OS:Construction,
  {6f56a463-4f25-445c-acc8-29b740fc8705}, !- Handle
  Sgl Grey 3mm,                           !- Name
  {d0d9e124-7b76-400f-aa8f-29deac7ac493}, !- Surface Rendering Name
  {6b32f0f3-93c9-45fb-8024-c8092a0bd1c9}; !- Layer 1

OS:Schedule:Compact,
  {e18e9680-2aea-43b9-991d-cafcc1766e0b}, !- Handle
  OCCUPY-1,                               !- Name
  {69839a8b-8383-4396-93b7-57575e5e7f1a}, !- Schedule Type Limits Name
  Through: 12/31,                         !- Field 1
  For: WeekDays SummerDesignDay CustomDay1 CustomDay2, !- Field 2
  Until: 8:00,                            !- Field 3
  0.0,                                    !- Field 4
  Until: 11:00,                           !- Field 5
  1.00,                                   !- Field 6
  Until: 12:00,                           !- Field 7
  0.80,                                   !- Field 8
  Until: 13:00,                           !- Field 9
  0.40,                                   !- Field 10
  Until: 14:00,                           !- Field 11
  0.80,                                   !- Field 12
  Until: 18:00,                           !- Field 13
  1.00,                                   !- Field 14
  Until: 19:00,                           !- Field 15
  0.50,                                   !- Field 16
  Until: 24:00,                           !- Field 17
  0.0,                                    !- Field 18
  For: Weekends WinterDesignDay Holiday,  !- Field 19
  Until: 24:00,                           !- Field 20
  0.0;                                    !- Field 21

OS:Schedule:Compact,
  {dbe44840-f1dc-4401-8bdb-263b17dc517f}, !- Handle
  LIGHTS-1,                               !- Name
  {69839a8b-8383-4396-93b7-57575e5e7f1a}, !- Schedule Type Limits Name
  Through: 12/31,                         !- Field 1
  For: WeekDays SummerDesignDay CustomDay1 CustomDay2, !- Field 2
  Until: 8:00,                            !- Field 3
  0.05,                                   !- Field 4
  Until: 9:00,                            !- Field 5
  0.9,                                    !- Field 6
  Until: 10:00,                           !- Field 7
  0.95,                                   !- Field 8
  Until: 11:00,                           !- Field 9
  1.00,                                   !- Field 10
  Until: 12:00,                           !- Field 11
  0.95,                                   !- Field 12
  Until: 13:00,                           !- Field 13
  0.8,                                    !- Field 14
  Until: 14:00,                           !- Field 15
  0.9,                                    !- Field 16
  Until: 18:00,                           !- Field 17
  1.00,                                   !- Field 18
  Until: 19:00,                           !- Field 19
  0.60,                                   !- Field 20
  Until: 21:00,                           !- Field 21
  0.20,                                   !- Field 22
  Until: 24:00,                           !- Field 23
  0.05,                                   !- Field 24
  For: Weekends WinterDesignDay Holiday,  !- Field 25
  Until: 24:00,                           !- Field 26
  0.05;                                   !- Field 27

OS:Schedule:Compact,
  {291fadac-cd4f-44af-b9bb-f730e454b1e0}, !- Handle
  EQUIP-1,                                !- Name
  {69839a8b-8383-4396-93b7-57575e5e7f1a}, !- Schedule Type Limits Name
  Through: 12/31,                         !- Field 1
  For: WeekDays SummerDesignDay CustomDay1 CustomDay2, !- Field 2
  Until: 8:00,                            !- Field 3
  0.02,                                   !- Field 4
  Until: 9:00,                            !- Field 5
  0.4,                                    !- Field 6
  Until: 14:00,                           !- Field 7
  0.9,                                    !- Field 8
  Until: 15:00,                           !- Field 9
  0.8,                                    !- Field 10
  Until: 16:00,                           !- Field 11
  0.7,                                    !- Field 12
  Until: 18:00,                           !- Field 13
  0.5,                                    !- Field 14
  Until: 20:00,                           !- Field 15
  0.3,                                    !- Field 16
  Until: 24:00,                           !- Field 17
  0.02,                                   !- Field 18
  For: Weekends WinterDesignDay Holiday,  !- Field 19
  Until: 24:00,                           !- Field 20
  0.2;                                    !- Field 21

OS:Schedule:Compact,
  {37f40315-bd67-4641-bea0-771fcdc61492}, !- Handle
  INFIL-SCH,                              !- Name
  {69839a8b-8383-4396-93b7-57575e5e7f1a}, !- Schedule Type Limits Name
  Through: 3/31,                          !- Field 1
  For: AllDays,                           !- Field 2
  Until: 24:00,                           !- Field 3
  1.0,                                    !- Field 4
  Through: 10/31,                         !- Field 5
  For: AllDays,                           !- Field 6
  Until: 24:00,                           !- Field 7
  0.0,                                    !- Field 8
  Through: 12/31,                         !- Field 9
  For: AllDays,                           !- Field 10
  Until: 24:00,                           !- Field 11
  1.0;                                    !- Field 12

OS:Schedule:Compact,
  {952a3e2c-a13a-442b-a8ac-0a1c45737f8e}, !- Handle
  ActSchd,                                !- Name
  {311824a0-221e-4a35-83ee-5a77cbcf5c44}, !- Schedule Type Limits Name
  Through: 12/31,                         !- Field 1
  For: AllDays,                           !- Field 2
  Until: 24:00,                           !- Field 3
  117.239997864;                          !- Field 4

OS:ScheduleTypeLimits,
  {29a42532-c4fc-412f-aa11-f45d47b324f4}, !- Handle
  {7d10f9dc-ad0e-44ab-b863-d9c781e01ce7}; !- Name

OS:Schedule:Compact,
  {2d7cdaab-ae93-491d-bb00-ac91ce92564c}, !- Handle
  ShadeTransSch,                          !- Name
  {69839a8b-8383-4396-93b7-57575e5e7f1a}, !- Schedule Type Limits Name
  Through: 12/31,                         !- Field 1
  For: AllDays,                           !- Field 2
  Until: 24:00,                           !- Field 3
  0.0;                                    !- Field 4

OS:ThermalZone,
  {7e7a7c56-f1dc-46df-9b7b-5e6f23bd6e5c}, !- Handle
  PLENUM-1 Thermal Zone,                  !- Name
  1,                                      !- Multiplier
  0.609600067,                            !- Ceiling Height {m}
  283.2,                                  !- Volume {m3}
  ,                                       !- Floor Area {m2}
  ,                                       !- Zone Inside Convection Algorithm
  ,                                       !- Zone Outside Convection Algorithm
  ,                                       !- Zone Conditioning Equipment List Name
  {c4e8ba52-0acb-40d9-b811-e1e04e2e659a}, !- Zone Air Inlet Port List
  {ba9496b5-40c7-4103-8144-cc3678f4c4d6}, !- Zone Air Exhaust Port List
  {9a43c836-8fe5-4693-bd5f-b851d1502682}, !- Zone Air Node Name
  {2604afeb-3e5e-4501-b052-8fd275164ad6}, !- Zone Return Air Port List
  ,                                       !- Primary Daylighting Control Name
  ,                                       !- Fraction of Zone Controlled by Primary Daylighting Control
  ,                                       !- Secondary Daylighting Control Name
  ,                                       !- Fraction of Zone Controlled by Secondary Daylighting Control
  ,                                       !- Illuminance Map Name
  {8bdb160b-7a29-4eab-a186-fa6f1c6d517b}, !- Group Rendering Name
  ,                                       !- Thermostat Name
  No;                                     !- Use Ideal Air Loads

OS:Node,
  {751fa27d-d116-4d69-a076-8eb3ae62f74f}, !- Handle
  {e3678d78-9971-4217-ab7b-f87fad7c77bf}, !- Name
  {9a43c836-8fe5-4693-bd5f-b851d1502682}, !- Inlet Port
  ;                                       !- Outlet Port

OS:Connection,
  {9a43c836-8fe5-4693-bd5f-b851d1502682}, !- Handle
  {0d31f239-369a-44c5-b003-d2d39433b046}, !- Name
  {7e7a7c56-f1dc-46df-9b7b-5e6f23bd6e5c}, !- Source Object
  11,                                     !- Outlet Port
  {751fa27d-d116-4d69-a076-8eb3ae62f74f}, !- Target Object
  2;                                      !- Inlet Port

OS:PortList,
  {c4e8ba52-0acb-40d9-b811-e1e04e2e659a}, !- Handle
  {2220e29d-80c0-45de-9368-db36e4faba77}, !- Name
  {7e7a7c56-f1dc-46df-9b7b-5e6f23bd6e5c}; !- HVAC Component

OS:PortList,
  {ba9496b5-40c7-4103-8144-cc3678f4c4d6}, !- Handle
  {55b242bc-9dc7-464e-9431-7c25069d2e1a}, !- Name
  {7e7a7c56-f1dc-46df-9b7b-5e6f23bd6e5c}; !- HVAC Component

OS:PortList,
  {2604afeb-3e5e-4501-b052-8fd275164ad6}, !- Handle
  {3b40ae9d-e3ec-47d1-82cf-b288b3cbe24f}, !- Name
  {7e7a7c56-f1dc-46df-9b7b-5e6f23bd6e5c}; !- HVAC Component

OS:Sizing:Zone,
  {3ccf4689-1967-4105-90a4-c3a4a7becec3}, !- Handle
  {7e7a7c56-f1dc-46df-9b7b-5e6f23bd6e5c}, !- Zone or ZoneList Name
  SupplyAirTemperature,                   !- Zone Cooling Design Supply Air Temperature Input Method
  14,                                     !- Zone Cooling Design Supply Air Temperature {C}
  11.11,                                  !- Zone Cooling Design Supply Air Temperature Difference {deltaC}
  SupplyAirTemperature,                   !- Zone Heating Design Supply Air Temperature Input Method
  40,                                     !- Zone Heating Design Supply Air Temperature {C}
  11.11,                                  !- Zone Heating Design Supply Air Temperature Difference {deltaC}
  0.0085,                                 !- Zone Cooling Design Supply Air Humidity Ratio {kg-H2O/kg-air}