
OS:Version,
  {9dd584dc-71aa-4aad-8c1e-47a5628167fa}, !- Handle
  2.9.1;                                  !- Version Identifier

OS:Building,
  {9d1ffb96-ea45-4b1c-afdc-dd104070ed0a}, !- Handle
  Building 1,                             !- Name
  ,                                       !- Building Sector Type
  ,                                       !- North Axis {deg}
  ,                                       !- Nominal Floor to Floor Height {m}
  ,                                       !- Space Type Name
  {548495da-273a-46c6-84ac-77fce5389f81}, !- Default Construction Set Name
  ;                                       !- Default Schedule Set Name

OS:ShadingSurfaceGroup,
  {76f397d8-bdfd-44f0-944b-205740751726}, !- Handle
  Shading Surface Group 1,                !- Name
  Building;                               !- Shading Surface Type

OS:Space,
  {ca9f2922-2f9d-49ef-a6d5-200bc8c300c8}, !- Handle
  scrigno_gallery;                        !- Name

OS:Space,
  {f1f830ec-55b2-4ecb-bb65-7f1edcbb4af5}, !- Handle
  scrigno_plenum;                         !- Name

OS:Construction,
  {faa2954f-f87e-4331-8f6e-d1a64efaf5d4}, !- Handle
  scrigno_construction,                   !- Name
  ,                                       !- Surface Rendering Name
  {127fe03b-c279-4cf8-b556-30b4ff2d2ae6}, !- Layer 1
  {354f119b-8e05-40ba-972c-e4b5b2d809f6}, !- Layer 2
  {fa086932-be1b-48e9-ac17-398ec04f13de}; !- Layer 3

OS:Construction,
  {836dcc3e-fe7c-45b9-bc3c-f20d7a5591be}, !- Handle
  scrigno_fen,                            !- Name
  ,                                       !- Surface Rendering Name
  {ccc899b2-360b-427a-a34c-de7a367b9b5d}; !- Layer 1

OS:Construction,
  {1f3cf86c-5a88-4558-bd79-833f88d8b92b}, !- Handle
  elevator,                               !- Name
  ,                                       !- Surface Rendering Name
  {127fe03b-c279-4cf8-b556-30b4ff2d2ae6}, !- Layer 1
  {83aac421-b7c7-4d3c-8080-4a27a6412168}, !- Layer 2
  {fa086932-be1b-48e9-ac17-398ec04f13de}; !- Layer 3

OS:WindowMaterial:SimpleGlazingSystem,
  {ccc899b2-360b-427a-a34c-de7a367b9b5d}, !- Handle
  scrigno_glazing,                        !- Name
  2,                                      !- U-Factor {W/m2-K}
  0.5,                                    !- Solar Heat Gain Coefficient
  0.7;                                    !- Visible Transmittance

OS:Material:NoMass,
  {127fe03b-c279-4cf8-b556-30b4ff2d2ae6}, !- Handle
  scrigno_exterior,                       !- Name
  Rough,                                  !- Roughness
  0.3626,                                 !- Thermal Resistance {m2-K/W}
  0.9,                                    !- Thermal Absorptance
  0.7,                                    !- Solar Absorptance
  0.7;                                    !- Visible Absorptance

OS:Material:NoMass,
  {83aac421-b7c7-4d3c-8080-4a27a6412168}, !- Handle
  xps8x25mm,                              !- Name
  Rough,                                  !- Roughness
  7.04,                                   !- Thermal Resistance {m2-K/W}
  0.9,                                    !- Thermal Absorptance
  0.7,                                    !- Solar Absorptance
  0.7;                                    !- Visible Absorptance

OS:Material,
  {354f119b-8e05-40ba-972c-e4b5b2d809f6}, !- Handle
  scrigno_insulation,                     !- Name
  MediumRough,                            !- Roughness
  0.1184,                                 !- Thickness {m}
  0.045,                                  !- Conductivity {W/m-K}
  265,                                    !- Density {kg/m3}
  836.8,                                  !- Specific Heat {J/kg-K}
  0.9,                                    !- Thermal Absorptance
  0.7,                                    !- Solar Absorptance
  0.7;                                    !- Visible Absorptance

OS:Material,
  {fa086932-be1b-48e9-ac17-398ec04f13de}, !- Handle
  scrigno_interior,                       !- Name
  MediumRough,                            !- Roughness
  0.0126,                                 !- Thickness {m}
  0.16,                                   !- Conductivity {W/m-K}
  784.9,                                  !- Density {kg/m3}
  830,                                    !- Specific Heat {J/kg-K}
  0.9,                                    !- Thermal Absorptance
  0.9,                                    !- Solar Absorptance
  0.9;                                    !- Visible Absorptance

OS:DefaultSurfaceConstructions,
  {1d5ed603-61e9-4cd8-a3ac-be32ef777c73}, !- Handle
  Default Surface Constructions 1,        !- Name
  {faa2954f-f87e-4331-8f6e-d1a64efaf5d4}, !- Floor Construction Name
  {faa2954f-f87e-4331-8f6e-d1a64efaf5d4}, !- Wall Construction Name
  {faa2954f-f87e-4331-8f6e-d1a64efaf5d4}; !- Roof Ceiling Construction Name

OS:DefaultSubSurfaceConstructions,
  {59dd877f-90c3-46e3-b0b9-2c8cd4b060a1}, !- Handle
  Default Sub Surface Constructions 1,    !- Name
  {836dcc3e-fe7c-45b9-bc3c-f20d7a5591be}, !- Fixed Window Construction Name
  {836dcc3e-fe7c-45b9-bc3c-f20d7a5591be}, !- Operable Window Construction Name
  {836dcc3e-fe7c-45b9-bc3c-f20d7a5591be}, !- Door Construction Name
  {836dcc3e-fe7c-45b9-bc3c-f20d7a5591be}, !- Glass Door Construction Name
  {836dcc3e-fe7c-45b9-bc3c-f20d7a5591be}, !- Overhead Door Construction Name
  {836dcc3e-fe7c-45b9-bc3c-f20d7a5591be}, !- Skylight Construction Name
  ,                                       !- Tubular Daylight Dome Construction Name
  ;                                       !- Tubular Daylight Diffuser Construction Name

OS:DefaultConstructionSet,
  {548495da-273a-46c6-84ac-77fce5389f81}, !- Handle
  Default Construction Set 1,             !- Name
  {1d5ed603-61e9-4cd8-a3ac-be32ef777c73}, !- Default Exterior Surface Constructions Name
  ,                                       !- Default Interior Surface Constructions Name
  ,                                       !- Default Ground Contact Surface Constructions Name
  {59dd877f-90c3-46e3-b0b9-2c8cd4b060a1}, !- Default Exterior SubSurface Constructions Name
  ,                                       !- Default Interior SubSurface Constructions Name
  ,                                       !- Interior Partition Construction Name
  ,                                       !- Space Shading Construction Name
  ,                                       !- Building Shading Construction Name
  ,                                       !- Site Shading Construction Name
  ;                                       !- Adiabatic Surface Construction Name

OS:ShadingSurface,
  {6266d789-e87b-4526-b995-6ef238f1f34e}, !- Handle
  r1_shade,                               !- Name
  ,                                       !- Construction Name
  {76f397d8-bdfd-44f0-944b-205740751726}, !- Shading Surface Group Name
  ,                                       !- Transmittance Schedule Name
  ,                                       !- Number of Vertices
  12.4, 45, 50,                           !- X,Y,Z Vertex 1 {m}
  12.4, 25, 50,                           !- X,Y,Z Vertex 2 {m}
  22.7, 25, 50,                           !- X,Y,Z Vertex 3 {m}
  22.7, 45, 50;                           !- X,Y,Z Vertex 4 {m}

OS:ShadingSurface,
  {92b510ea-0faf-40f1-abc5-65c3e3a29ee0}, !- Handle
  r2_shade,                               !- Name
  ,                                       !- Construction Name
  {76f397d8-bdfd-44f0-944b-205740751726}, !- Shading Surface Group Name
  ,                                       !- Transmittance Schedule Name
  ,                                       !- Number of Vertices
  22.7, 45, 50,                           !- X,Y,Z Vertex 1 {m}
  22.7, 37.5, 50,                         !- X,Y,Z Vertex 2 {m}
  48.7, 37.5, 50,                         !- X,Y,Z Vertex 3 {m}
  48.7, 45, 50;                           !- X,Y,Z Vertex 4 {m}

OS:ShadingSurface,
  {aa314d8c-960e-441f-9dc7-80a00bf83e2b}, !- Handle
  r3_shade,                               !- Name
  ,                                       !- Construction Name
  {76f397d8-bdfd-44f0-944b-205740751726}, !- Shading Surface Group Name
  ,                                       !- Transmittance Schedule Name
  ,                                       !- Number of Vertices
  22.7, 32.5, 50,                         !- X,Y,Z Vertex 1 {m}
  22.7, 25, 50,                           !- X,Y,Z Vertex 2 {m}
  48.7, 25, 50,                           !- X,Y,Z Vertex 3 {m}
  48.7, 32.5, 50;                         !- X,Y,Z Vertex 4 {m}

OS:ShadingSurface,
  {cd0c67d3-2437-4dcc-acbc-eee555a345a8}, !- Handle
  r4_shade,                               !- Name
  ,                                       !- Construction Name
  {76f397d8-bdfd-44f0-944b-205740751726}, !- Shading Surface Group Name
  ,                                       !- Transmittance Schedule Name
  ,                                       !- Number of Vertices
  48.7, 45, 50,                           !- X,Y,Z Vertex 1 {m}
  48.7, 25, 50,                           !- X,Y,Z Vertex 2 {m}
  59, 25, 50,                             !- X,Y,Z Vertex 3 {m}
  59, 45, 50;                             !- X,Y,Z Vertex 4 {m}

OS:ShadingSurface,
  {65d60702-c224-48cc-9c86-2df52bc0773f}, !- Handle
  N_balcony,                              !- Name
  ,                                       !- Construction Name
  {76f397d8-bdfd-44f0-944b-205740751726}, !- Shading Surface Group Name
  ,                                       !- Transmittance Schedule Name
  ,                                       !- Number of Vertices
  47.4, 40.2, 44,                         !- X,Y,Z Vertex 1 {m}
  47.4, 41.7, 44,                         !- X,Y,Z Vertex 2 {m}
  45.7, 41.7, 44,                         !- X,Y,Z Vertex 3 {m}
  45.7, 40.2, 44;                         !- X,Y,Z Vertex 4 {m}

OS:ShadingSurface,
  {b295363a-9641-4f40-93c8-9b9b152998eb}, !- Handle
  S_balcony,                              !- Name
  ,                                       !- Construction Name
  {76f397d8-bdfd-44f0-944b-205740751726}, !- Shading Surface Group Name
  ,                                       !- Transmittance Schedule Name
  ,                                       !- Number of Vertices
  28.1, 29.8, 44,                         !- X,Y,Z Vertex 1 {m}
  28.1, 28.3, 44,                         !- X,Y,Z Vertex 2 {m}
  47.4, 28.3, 44,                         !- X,Y,Z Vertex 3 {m}
  47.4, 29.8, 44;                         !- X,Y,Z Vertex 4 {m}

OS:Surface,
  {190d6a8f-605b-4e44-9a69-6ae9a431c579}, !- Handle
  g_W_wall,                               !- Name
  Wall,                                   !- Surface Type
  ,                                       !- Construction Name
  {ca9f2922-2f9d-49ef-a6d5-200bc8c300c8}, !- Space Name
  Outdoors,                               !- Outside Boundary Condition
  ,                                       !- Outside Boundary Condition Object
  SunExposed,                             !- Sun Exposure
  WindExposed,                            !- Wind Exposure
  ,                                       !- View Factor to Ground
  ,                                       !- Number of Vertices
  17.4, 40.2, 49.5,                       !- X,Y,Z Vertex 1 {m}
  17.4, 40.2, 44,                         !- X,Y,Z Vertex 2 {m}
  17.4, 29.8, 44,                         !- X,Y,Z Vertex 3 {m}
  17.4, 29.8, 49.5;                       !- X,Y,Z Vertex 4 {m}

OS:Surface,
  {f252a8b1-d16d-4cce-ba9f-6ff41064238d}, !- Handle
  g_N_wall,                               !- Name
  Wall,                                   !- Surface Type
  ,                                       !- Construction Name
  {ca9f2922-2f9d-49ef-a6d5-200bc8c300c8}, !- Space Name
  Outdoors,                               !- Outside Boundary Condition
  ,                                       !- Outside Boundary Condition Object
  SunExposed,                             !- Sun Exposure
  WindExposed,                            !- Wind Exposure
  ,                                       !- View Factor to Ground
  ,                                       !- Number of Vertices
  54, 40.2, 49.5,                         !- X,Y,Z Vertex 1 {m}
  54, 40.2, 44,                           !- X,Y,Z Vertex 2 {m}
  17.4, 40.2, 44,                         !- X,Y,Z Vertex 3 {m}
  17.4, 40.2, 49.5;                       !- X,Y,Z Vertex 4 {m}

OS:SubSurface,
  {c07ec39b-8a5c-4fb3-8ad6-c5dd15779d20}, !- Handle
  g_N_door,                               !- Name
  GlassDoor,                              !- Sub Surface Type
  ,                                       !- Construction Name
  {f252a8b1-d16d-4cce-ba9f-6ff41064238d}, !- Surface Name
  ,                                       !- Outside Boundary Condition Object
  ,                                       !- View Factor to Ground
  ,                                       !- Shading Control Name
  ,                                       !- Frame and Divider Name
  ,                                       !- Multiplier
  ,                                       !- Number of Vertices
  47.4, 40.2, 46,                         !- X,Y,Z Vertex 1 {m}
  47.4, 40.2, 44,                         !- X,Y,Z Vertex 2 {m}
  46.4, 40.2, 44,                         !- X,Y,Z Vertex 3 {m}
  46.4, 40.2, 46;                         !- X,Y,Z Vertex 4 {m}

OS:Surface,
  {abdf72e0-c31a-426a-8f93-7e693043342e}, !- Handle
  g_E_wall,                               !- Name
  Wall,                                   !- Surface Type
  ,                                       !- Construction Name
  {ca9f2922-2f9d-49ef-a6d5-200bc8c300c8}, !- Space Name
  Outdoors,                               !- Outside Boundary Condition
  ,                                       !- Outside Boundary Condition Object
  SunExposed,                             !- Sun Exposure
  WindExposed,                            !- Wind Exposure
  ,                                       !- View Factor to Ground
  ,                                       !- Number of Vertices
  54, 29.8, 49.5,                         !- X,Y,Z Vertex 1 {m}
  54, 29.8, 44,                           !- X,Y,Z Vertex 2 {m}
  54, 40.2, 44,                           !- X,Y,Z Vertex 3 {m}
  54, 40.2, 49.5;                         !- X,Y,Z Vertex 4 {m}

OS:Surface,
  {a2840a98-d4be-47d5-b370-caba72db4966}, !- Handle
  g_S_wall,                               !- Name
  Wall,                                   !- Surface Type
  ,                                       !- Construction Name
  {ca9f2922-2f9d-49ef-a6d5-200bc8c300c8}, !- Space Name
  Outdoors,                               !- Outside Boundary Condition
  ,                                       !- Outside Boundary Condition Object
  SunExposed,                             !- Sun Exposure
  WindExposed,                            !- Wind Exposure
  ,                                       !- View Factor to Ground
  ,                                       !- Number of Vertices
  17.4, 29.8, 49.5,                       !- X,Y,Z Vertex 1 {m}
  17.4, 29.8, 44,                         !- X,Y,Z Vertex 2 {m}
  24, 29.8, 44,                           !- X,Y,Z Vertex 3 {m}
  24, 29.8, 46.7,                         !- X,Y,Z Vertex 4 {m}
  28, 29.8, 46.7,                         !- X,Y,Z Vertex 5 {m}
  28, 29.8, 44,                           !- X,Y,Z Vertex 6 {m}
  54, 29.8, 44,                           !- X,Y,Z Vertex 7 {m}
  54, 29.8, 49.5;                         !- X,Y,Z Vertex 8 {m}

OS:SubSurface,
  {4bd83f5c-74bd-4384-9c8d-ead52e771c76}, !- Handle
  g_S_door,                               !- Name
  GlassDoor,                              !- Sub Surface Type
  ,                                       !- Construction Name
  {a2840a98-d4be-47d5-b370-caba72db4966}, !- Surface Name
  ,                                       !- Outside Boundary Condition Object
  ,                                       !- View Factor to Ground
  ,                                       !- Shading Control Name
  ,                                       !- Frame and Divider Name
  ,                                       !- Multiplier
  ,                                       !- Number of Vertices
  46.4, 29.8, 46,                         !- X,Y,Z Vertex 1 {m}
  46.4, 29.8, 44,                         !- X,Y,Z Vertex 2 {m}
  47.4, 29.8, 44,                         !- X,Y,Z Vertex 3 {m}
  47.4, 29.8, 46;                         !- X,Y,Z Vertex 4 {m}

OS:Surface,
  {2c4f0072-9f26-45b8-a824-35b98384e6f4}, !- Handle
  g_top,                                  !- Name
  RoofCeiling,                            !- Surface Type
  ,                                       !- Construction Name
  {ca9f2922-2f9d-49ef-a6d5-200bc8c300c8}, !- Space Name
  Outdoors,                               !- Outside Boundary Condition
  ,                                       !- Outside Boundary Condition Object
  SunExposed,                             !- Sun Exposure
  WindExposed,                            !- Wind Exposure
  ,                                       !- View Factor to Ground
  ,                                       !- Number of Vertices
  17.4, 40.2, 49.5,                       !- X,Y,Z Vertex 1 {m}
  17.4, 29.8, 49.5,                       !- X,Y,Z Vertex 2 {m}
  54, 29.8, 49.5,                         !- X,Y,Z Vertex 3 {m}
  54, 40.2, 49.5;                         !- X,Y,Z Vertex 4 {m}

OS:SubSurface,
  {6219ad7d-28f8-41e2-a70d-52b03352deb3}, !- Handle
  g_sky,                                  !- Name
  Skylight,                               !- Sub Surface Type
  ,                                       !- Construction Name
  {2c4f0072-9f26-45b8-a824-35b98384e6f4}, !- Surface Name
  ,                                       !- Outside Boundary Condition Object
  ,                                       !- View Factor to Ground
  ,                                       !- Shading Control Name
  ,                                       !- Frame and Divider Name
  ,                                       !- Multiplier
  ,                                       !- Number of Vertices
  17.4, 40.2, 49.5,                       !- X,Y,Z Vertex 1 {m}
  17.4, 29.8, 49.5,                       !- X,Y,Z Vertex 2 {m}
  54, 29.8, 49.5,                         !- X,Y,Z Vertex 3 {m}
  54, 40.2, 49.5;                         !- X,Y,Z Vertex 4 {m}

OS:Surface,
  {dbcf10f0-08b2-4621-b075-c7e83e793d11}, !- Handle
  e_top,                                  !- Name
  RoofCeiling,                            !- Surface Type
  ,                                       !- Construction Name
  {ca9f2922-2f9d-49ef-a6d5-200bc8c300c8}, !- Space Name
  Outdoors,                               !- Outside Boundary Condition
  ,                                       !- Outside Boundary Condition Object
  SunExposed,                             !- Sun Exposure
  WindExposed,                            !- Wind Exposure
  ,                                       !- View Factor to Ground
  ,                                       !- Number of Vertices
  24, 29.8, 46.7,                         !- X,Y,Z Vertex 1 {m}
  24, 28.3, 46.7,                         !- X,Y,Z Vertex 2 {m}
  28, 28.3, 46.7,                         !- X,Y,Z Vertex 3 {m}
  28, 29.8, 46.7;                         !- X,Y,Z Vertex 4 {m}

OS:Surface,
  {077e89e4-9de6-41a5-b34a-ea00f9010abd}, !- Handle
  e_floor,                                !- Name
  Floor,                                  !- Surface Type
  {1f3cf86c-5a88-4558-bd79-833f88d8b92b}, !- Construction Name
  {ca9f2922-2f9d-49ef-a6d5-200bc8c300c8}, !- Space Name
  Outdoors,                               !- Outside Boundary Condition
  ,                                       !- Outside Boundary Condition Object
  SunExposed,                             !- Sun Exposure
  WindExposed,                            !- Wind Exposure
  ,                                       !- View Factor to Ground
  ,                                       !- Number of Vertices
  24, 28.3, 40.8,                         !- X,Y,Z Vertex 1 {m}
  24, 29.8, 40.8,                         !- X,Y,Z Vertex 2 {m}
  28, 29.8, 40.8,                         !- X,Y,Z Vertex 3 {m}
  28, 28.3, 40.8;                         !- X,Y,Z Vertex 4 {m}

OS:Surface,
  {cb43d85b-a0c3-4446-bfc1-95ae962200b3}, !- Handle
  e_W_wall,                               !- Name
  Wall,                                   !- Surface Type
  ,                                       !- Construction Name
  {ca9f2922-2f9d-49ef-a6d5-200bc8c300c8}, !- Space Name
  Outdoors,                               !- Outside Boundary Condition
  ,                                       !- Outside Boundary Condition Object
  SunExposed,                             !- Sun Exposure
  WindExposed,                            !- Wind Exposure
  ,                                       !- View Factor to Ground
  ,                                       !- Number of Vertices
  24, 29.8, 46.7,                         !- X,Y,Z Vertex 1 {m}
  24, 29.8, 40.8,                         !- X,Y,Z Vertex 2 {m}
  24, 28.3, 40.8,                         !- X,Y,Z Vertex 3 {m}
  24, 28.3, 46.7;                         !- X,Y,Z Vertex 4 {m}

OS:Surface,
  {5ec75fe6-811c-4cfe-b45e-a60c5edf237b}, !- Handle
  e_S_wall,                               !- Name
  Wall,                                   !- Surface Type
  ,                                       !- Construction Name
  {ca9f2922-2f9d-49ef-a6d5-200bc8c300c8}, !- Space Name
  Outdoors,                               !- Outside Boundary Condition
  ,                                       !- Outside Boundary Condition Object
  SunExposed,                             !- Sun Exposure
  WindExposed,                            !- Wind Exposure
  ,                                       !- View Factor to Ground
  ,                                       !- Number of Vertices
  24, 28.3, 46.7,                         !- X,Y,Z Vertex 1 {m}
  24, 28.3, 40.8,                         !- X,Y,Z Vertex 2 {m}
  28, 28.3, 40.8,                         !- X,Y,Z Vertex 3 {m}
  28, 28.3, 46.7;                         !- X,Y,Z Vertex 4 {m}

OS:Surface,
  {e52b35e3-052b-41ec-aa89-7e538ec9abfa}, !- Handle
  e_E_wall,                               !- Name
  Wall,                                   !- Surface Type
  ,                                       !- Construction Name
  {ca9f2922-2f9d-49ef-a6d5-200bc8c300c8}, !- Space Name
  Outdoors,                               !- Outside Boundary Condition
  ,                                       !- Outside Boundary Condition Object
  SunExposed,                             !- Sun Exposure
  WindExposed,                            !- Wind Exposure
  ,                                       !- View Factor to Ground
  ,                                       !- Number of Vertices
  28, 28.3, 46.7,                         !- X,Y,Z Vertex 1 {m}
  28, 28.3, 40.8,                         !- X,Y,Z Vertex 2 {m}
  28, 29.8, 40.8,                         !- X,Y,Z Vertex 3 {m}
  28, 29.8, 46.7;                         !- X,Y,Z Vertex 4 {m}

OS:Surface,
  {4a86750c-6d67-41bf-b0c8-4e04e03e1d93}, !- Handle
  e_N_wall,                               !- Name
  Wall,                                   !- Surface Type
  ,                                       !- Construction Name
  {ca9f2922-2f9d-49ef-a6d5-200bc8c300c8}, !- Space Name
  Outdoors,                               !- Outside Boundary Condition
  ,                                       !- Outside Boundary Condition Object
  SunExposed,                             !- Sun Exposure
  WindExposed,                            !- Wind Exposure
  ,                                       !- View Factor to Ground
  ,                                       !- Number of Vertices
  28, 29.8, 42.4,                         !- X,Y,Z Vertex 1 {m}
  28, 29.8, 40.8,                         !- X,Y,Z Vertex 2 {m}
  24, 29.8, 40.8,                         !- X,Y,Z Vertex 3 {m}
  24, 29.8, 43;                           !- X,Y,Z Vertex 4 {m}

OS:Surface,
  {c452d497-0fe5-4f40-a355-6048d7156b80}, !- Handle
  e_p_wall,                               !- Name
  Wall,                                   !- Surface Type
  ,                                       !- Construction Name
  {ca9f2922-2f9d-49ef-a6d5-200bc8c300c8}, !- Space Name
  Surface,                                !- Outside Boundary Condition
  {70259834-5ae6-4eb5-92b1-b6495d598ba6}, !- Outside Boundary Condition Object
  NoSun,                                  !- Sun Exposure
  NoWind,                                 !- Wind Exposure
  ,                                       !- View Factor to Ground
  ,                                       !- Number of Vertices
  28, 29.8, 44,                           !- X,Y,Z Vertex 1 {m}
  28, 29.8, 42.4,                         !- X,Y,Z Vertex 2 {m}
  24, 29.8, 43,                           !- X,Y,Z Vertex 3 {m}
  24, 29.8, 44;                           !- X,Y,Z Vertex 4 {m}

OS:Surface,
  {2f74e2df-1629-402a-91ae-c59c944c8b12}, !- Handle
  g_floor,                                !- Name
  Floor,                                  !- Surface Type
  ,                                       !- Construction Name
  {ca9f2922-2f9d-49ef-a6d5-200bc8c300c8}, !- Space Name
  Surface,                                !- Outside Boundary Condition
  {d996d4ee-983d-4a14-a3fe-5a030bdfa0fd}, !- Outside Boundary Condition Object
  NoSun,                                  !- Sun Exposure
  NoWind,                                 !- Wind Exposure
  ,                                       !- View Factor to Ground
  ,                                       !- Number of Vertices
  17.4, 29.8, 44,                         !- X,Y,Z Vertex 1 {m}
  17.4, 40.2, 44,                         !- X,Y,Z Vertex 2 {m}
  54, 40.2, 44,                           !- X,Y,Z Vertex 3 {m}
  54, 29.8, 44;                           !- X,Y,Z Vertex 4 {m}

OS:Surface,
  {d996d4ee-983d-4a14-a3fe-5a030bdfa0fd}, !- Handle
  p_top,                                  !- Name
  RoofCeiling,                            !- Surface Type
  ,                                       !- Construction Name
  {f1f830ec-55b2-4ecb-bb65-7f1edcbb4af5}, !- Space Name
  Surface,                                !- Outside Boundary Condition
  {2f74e2df-1629-402a-91ae-c59c944c8b12}, !- Outside Boundary Condition Object
  NoSun,                                  !- Sun Exposure
  NoWind,                                 !- Wind Exposure
  ,                                       !- View Factor to Ground
  ,                                       !- Number of Vertices
  17.4, 40.2, 44,                         !- X,Y,Z Vertex 1 {m}
  17.4, 29.8, 44,                         !- X,Y,Z Vertex 2 {m}
  54, 29.8, 44,                           !- X,Y,Z Vertex 3 {m}
  54, 40.2, 44;                           !- X,Y,Z Vertex 4 {m}

OS:Surface,
  {70259834-5ae6-4eb5-92b1-b6495d598ba6}, !- Handle
  p_e_wall,                               !- Name
  Wall,                                   !- Surface Type
  ,                                       !- Construction Name
  {f1f830ec-55b2-4ecb-bb65-7f1edcbb4af5}, !- Space Name
  Surface,                                !- Outside Boundary Condition
  {c452d497-0fe5-4f40-a355-6048d7156b80}, !- Outside Boundary Condition Object
  NoSun,                                  !- Sun Exposure
  NoWind,                                 !- Wind Exposure
  ,                                       !- View Factor to Ground
  ,                                       !- Number of Vertices
  24, 29.8, 44,                           !- X,Y,Z Vertex 1 {m}
  24, 29.8, 43,                           !- X,Y,Z Vertex 2 {m}
  28, 29.8, 42.4,                         !- X,Y,Z Vertex 3 {m}
  28, 29.8, 44;                           !- X,Y,Z Vertex 4 {m}

OS:Surface,
  {fc81f2cb-a14c-48b6-b8d6-76e9465e9cb0}, !- Handle
  p_S1_wall,                              !- Name
  Wall,                                   !- Surface Type
  ,                                       !- Construction Name
  {f1f830ec-55b2-4ecb-bb65-7f1edcbb4af5}, !- Space Name
  Outdoors,                               !- Outside Boundary Condition
  ,                                       !- Outside Boundary Condition Object
  SunExposed,                             !- Sun Exposure
  WindExposed,                            !- Wind Exposure
  ,                                       !- View Factor to Ground
  ,                                       !- Number of Vertices
  17.4, 29.8, 44,                         !- X,Y,Z Vertex 1 {m}
  24, 29.8, 43,                           !- X,Y,Z Vertex 2 {m}
  24, 29.8, 44;                           !- X,Y,Z Vertex 3 {m}

OS:Surface,
  {25bcfea1-3eb0-4e72-882c-0abd5a7ef059}, !- Handle
  p_S2_wall,                              !- Name
  Wall,                                   !- Surface Type
  ,                                       !- Construction Name
  {f1f830ec-55b2-4ecb-bb65-7f1edcbb4af5}, !- Space Name
  Outdoors,                               !- Outside Boundary Condition
  ,                                       !- Outside Boundary Condition Object
  SunExposed,                             !- Sun Exposure
  WindExposed,                            !- Wind Exposure
  ,                                       !- View Factor to Ground
  ,                                       !- Number of Vertices
  28, 29.8, 44,                           !- X,Y,Z Vertex 1 {m}
  28, 29.8, 42.4,                         !- X,Y,Z Vertex 2 {m}
  30.7, 29.8, 42,                         !- X,Y,Z Vertex 3 {m}
  40.7, 29.8, 42,                         !- X,Y,Z Vertex 4 {m}
  54, 29.8, 44;                           !- X,Y,Z Vertex 5 {m}

OS:Surface,
  {19b47d15-9ae1-4d97-a30d-a9fa085314e0}, !- Handle
  p_N_wall,                               !- Name
  Wall,                                   !- Surface Type
  ,                                       !- Construction Name
  {f1f830ec-55b2-4ecb-bb65-7f1edcbb4af5}, !- Space Name