
OS:Version,
  {fca5ecc9-d55a-4ebb-8718-937a389b66e6}, !- Handle
  2.9.1;                                  !- Version Identifier

OS:Site,
  {c00adc80-6624-4147-acfc-dcc2b8830566}, !- Handle
  Site 1,                                 !- Name
  ,                                       !- Latitude {deg}
  ,                                       !- Longitude {deg}
  ,                                       !- Time Zone {hr}
  ,                                       !- Elevation {m}
  ;                                       !- Terrain

OS:YearDescription,
  {371761af-7977-4795-85b5-60525ece2a79}; !- Handle

OS:ClimateZones,
  {d4dcb33a-11f6-4470-ae58-218e1f027f2f}, !- Handle
  ,                                       !- Active Institution
  ,                                       !- Active Year
  ,                                       !- Climate Zone Institution Name 1
  ,                                       !- Climate Zone Document Name 1
  ,                                       !- Climate Zone Document Year 1
  ,                                       !- Climate Zone Value 1
  CEC,                                    !- Climate Zone Institution Name 2
  California Climate Zone Descriptions,   !- Climate Zone Document Name 2
  1995,                                   !- Climate Zone Document Year 2
  ;                                       !- Climate Zone Value 2

OS:Facility,
  {e538e8fe-cd80-4b6d-b004-4be2e6d7412a}; !- Handle

OS:SimulationControl,
  {d3a1d148-96af-44c5-b001-34ead448589b}; !- Handle

OS:Sizing:Parameters,
  {f2676aca-8c22-4495-8fa4-2d90e2ec0f8c}, !- Handle
  1.25,                                   !- Heating Sizing Factor
  1.15;                                   !- Cooling Sizing Factor

OS:Timestep,
  {8df3538e-1b7c-40ab-bf3e-549a5ff1e83f}, !- Handle
  6;                                      !- Number of Timesteps per Hour

OS:ShadowCalculation,
  {669f5f43-e51e-4dbf-a4a8-586c36e6c880}, !- Handle
  20,                                     !- Calculation Frequency
  15000;                                  !- Maximum Figures in Shadow Overlap Calculations

OS:HeatBalanceAlgorithm,
  {298ede55-a33d-44eb-80f6-23904e360d1d}, !- Handle
  ConductionTransferFunction,             !- Algorithm
  200;                                    !- Surface Temperature Upper Limit {C}

OS:RunPeriod,
  {462f2d91-8095-453a-b033-a627f2879c94}, !- Handle
  Run Period 1,                           !- Name
  1,                                      !- Begin Month
  1,                                      !- Begin Day of Month
  12,                                     !- End Month
  31,                                     !- End Day of Month
  ,                                       !- Use Weather File Holidays and Special Days
  ,                                       !- Use Weather File Daylight Saving Period
  ,                                       !- Apply Weekend Holiday Rule
  ,                                       !- Use Weather File Rain Indicators
  ,                                       !- Use Weather File Snow Indicators
  ;                                       !- Number of Times Runperiod to be Repeated

OS:LifeCycleCost:Parameters,
  {f12fff89-a52e-4ec6-83a5-7843931c957d}, !- Handle
  ,                                       !- Analysis Type
  ,                                       !- Discounting Convention
  ,                                       !- Inflation Approach
  ,                                       !- Real Discount Rate
  ,                                       !- Nominal Discount Rate
  ,                                       !- Inflation
  ,                                       !- Base Date Month
  ,                                       !- Base Date Year
  ,                                       !- Service Date Month
  ,                                       !- Service Date Year
  ;                                       !- Length of Study Period in Years

OS:Building,
  {f70df085-c554-4569-ae40-87e95d8ee0c6}, !- Handle
  Building,                               !- Name
  ,                                       !- Building Sector Type
  30,                                     !- North Axis {deg}
  ,                                       !- Nominal Floor to Floor Height {m}
  ,                                       !- Space Type Name
  ,                                       !- Default Construction Set Name
  ;                                       !- Default Schedule Set Name

OS:Output:Meter,
  {07dec06d-5339-4b9e-ab64-e40a713e8cff}, !- Handle
  Electricity:Building,                   !- Name
  monthly,                                !- Reporting Frequency
  True,                                   !- Meter File Only
  False;                                  !- Cumulative

OS:Output:Meter,
  {95b5d249-9c73-4bc3-8c94-08000d5b5d03}, !- Handle
  Electricity:Building,                   !- Name
  runperiod,                              !- Reporting Frequency
  True,                                   !- Meter File Only
  False;                                  !- Cumulative

OS:ThermalZone,
  {556d239e-54e7-48a3-aa15-4d5adb927b98}, !- Handle
  SPACE5-1 Thermal Zone,                  !- Name
  1,                                      !- Multiplier
  2.438400269,                            !- Ceiling Height {m}
  447.682556152,                          !- Volume {m3}
  ,                                       !- Floor Area {m2}
  ,                                       !- Zone Inside Convection Algorithm
  ,                                       !- Zone Outside Convection Algorithm
  ,                                       !- Zone Conditioning Equipment List Name
  {32d9198e-3501-4fe1-bcbf-361e8836e687}, !- Zone Air Inlet Port List
  {734e4894-122c-40d4-a01a-83f908a7b88d}, !- Zone Air Exhaust Port List
  {efde09c6-6746-4e91-9156-04e9e30ecc58}, !- Zone Air Node Name
  {5bd2bba7-9d3e-4791-8536-16b472d850f7}, !- Zone Return Air Port List
  ,                                       !- Primary Daylighting Control Name
  ,                                       !- Fraction of Zone Controlled by Primary Daylighting Control
  ,                                       !- Secondary Daylighting Control Name
  ,                                       !- Fraction of Zone Controlled by Secondary Daylighting Control
  ,                                       !- Illuminance Map Name
  {4af9015b-e631-4b1a-95da-744b136dffc5}, !- Group Rendering Name
  {cdef6432-7c1d-4d7b-8ee0-d2a4bd947234}, !- Thermostat Name
  No,                                     !- Use Ideal Air Loads
  ;                                       !- Humidistat Name

OS:Node,
  {c771e9bd-3093-47fa-8d8d-90dd0c3ed84b}, !- Handle
  Node 1,                                 !- Name
  {efde09c6-6746-4e91-9156-04e9e30ecc58}, !- Inlet Port
  ;                                       !- Outlet Port

OS:Connection,
  {efde09c6-6746-4e91-9156-04e9e30ecc58}, !- Handle
  {aa51eb38-579d-45ea-a271-62881bc984dd}, !- Name
  {556d239e-54e7-48a3-aa15-4d5adb927b98}, !- Source Object
  11,                                     !- Outlet Port
  {c771e9bd-3093-47fa-8d8d-90dd0c3ed84b}, !- Target Object
  2;                                      !- Inlet Port

OS:PortList,
  {32d9198e-3501-4fe1-bcbf-361e8836e687}, !- Handle
  {d539a1fc-96d2-4afc-8f00-d6b5b2435ee4}, !- Name
  {556d239e-54e7-48a3-aa15-4d5adb927b98}; !- HVAC Component

OS:PortList,
  {734e4894-122c-40d4-a01a-83f908a7b88d}, !- Handle
  {316e4744-b252-4c60-9f92-5f8b9644dc7b}, !- Name
  {556d239e-54e7-48a3-aa15-4d5adb927b98}; !- HVAC Component

OS:PortList,
  {5bd2bba7-9d3e-4791-8536-16b472d850f7}, !- Handle
  {af961a12-5728-44f5-b91c-3ad3cf4af1fa}, !- Name
  {556d239e-54e7-48a3-aa15-4d5adb927b98}; !- HVAC Component

OS:Sizing:Zone,
  {635da3bf-de6c-41e2-8fde-651b8e1cd882}, !- Handle
  {556d239e-54e7-48a3-aa15-4d5adb927b98}, !- Zone or ZoneList Name
  SupplyAirTemperature,                   !- Zone Cooling Design Supply Air Temperature Input Method
  14,                                     !- Zone Cooling Design Supply Air Temperature {C}
  11.11,                                  !- Zone Cooling Design Supply Air Temperature Difference {deltaC}
  SupplyAirTemperature,                   !- Zone Heating Design Supply Air Temperature Input Method
  50,                                     !- Zone Heating Design Supply Air Temperature {C}
  11.11,                                  !- Zone Heating Design Supply Air Temperature Difference {deltaC}
  0.0085,                                 !- Zone Cooling Design Supply Air Humidity Ratio {kg-H2O/kg-air}
  0.004,                                  !- Zone Heating Design Supply Air Humidity Ratio {kg-H2O/kg-air}
  0,                                      !- Zone Heating Sizing Factor
  0,                                      !- Zone Cooling Sizing Factor
  DesignDayWithLimit,                     !- Cooling Design Air Flow Method
  ,                                       !- Cooling Design Air Flow Rate {m3/s}
  ,                                       !- Cooling Minimum Air Flow per Zone Floor Area {m3/s-m2}
  ,                                       !- Cooling Minimum Air Flow {m3/s}
  ,                                       !- Cooling Minimum Air Flow Fraction
  DesignDay,                              !- Heating Design Air Flow Method
  ,                                       !- Heating Design Air Flow Rate {m3/s}
  ,                                       !- Heating Maximum Air Flow per Zone Floor Area {m3/s-m2}
  ,                                       !- Heating Maximum Air Flow {m3/s}
  ,                                       !- Heating Maximum Air Flow Fraction
  ,                                       !- Design Zone Air Distribution Effectiveness in Cooling Mode
  ,                                       !- Design Zone Air Distribution Effectiveness in Heating Mode
  No,                                     !- Account for Dedicated Outdoor Air System
  NeutralSupplyAir,                       !- Dedicated Outdoor Air System Control Strategy
  autosize,                               !- Dedicated Outdoor Air Low Setpoint Temperature for Design {C}
  autosize;                               !- Dedicated Outdoor Air High Setpoint Temperature for Design {C}

OS:ZoneHVAC:EquipmentList,
  {f932936a-fd50-44cb-ab7d-c3d509aff17a}, !- Handle
  Zone HVAC Equipment List 1,             !- Name
  {556d239e-54e7-48a3-aa15-4d5adb927b98}; !- Thermal Zone

OS:Schedule:Compact,
  {f1c427d1-c79a-4b1c-874d-652c9bedb22c}, !- Handle
  Htg-SetP-Sch,                           !- Name
  {e1edbc7a-8a5d-4cbc-ae89-f56184f40656}, !- Schedule Type Limits Name
  Through: 12/31,                         !- Field 1
  For: SummerDesignDay,                   !- Field 2
  Until: 24:00,                           !- Field 3
  16.7,                                   !- Field 4
  For: WinterDesignDay,                   !- Field 5
  Until: 24:00,                           !- Field 6
  22.2,                                   !- Field 7
  For: WeekDays,                          !- Field 8
  Until: 6:00,                            !- Field 9
  16.7,                                   !- Field 10
  Until: 20:00,                           !- Field 11
  22.2,                                   !- Field 12
  Until: 24:00,                           !- Field 13
  16.7,                                   !- Field 14
  For: WeekEnds Holiday,                  !- Field 15
  Until: 24:00,                           !- Field 16
  16.7,                                   !- Field 17
  For: AllOtherDays,                      !- Field 18
  Until: 24:00,                           !- Field 19
  16.7;                                   !- Field 20

OS:Schedule:Compact,
  {b2508a30-5d28-48d3-88cd-5c5d3890f7b2}, !- Handle
  Clg-SetP-Sch,                           !- Name
  {e1edbc7a-8a5d-4cbc-ae89-f56184f40656}, !- Schedule Type Limits Name
  Through: 12/31,                         !- Field 1
  For: SummerDesignDay,                   !- Field 2
  Until: 24:00,                           !- Field 3
  23.9,                                   !- Field 4
  For: WinterDesignDay,                   !- Field 5
  Until: 24:00,                           !- Field 6
  29.4,                                   !- Field 7
  For: WeekDays,                          !- Field 8
  Until: 6:00,                            !- Field 9
  29.4,                                   !- Field 10
  Until: 20:00,                           !- Field 11
  23.9,                                   !- Field 12
  Until: 24:00,                           !- Field 13
  29.4,                                   !- Field 14
  For: WeekEnds Holiday,                  !- Field 15
  Until: 24:00,                           !- Field 16
  29.4,                                   !- Field 17
  For: AllOtherDays,                      !- Field 18
  Until: 24:00,                           !- Field 19
  29.4;                                   !- Field 20

OS:ScheduleTypeLimits,
  {e1edbc7a-8a5d-4cbc-ae89-f56184f40656}, !- Handle
  Temperature,                            !- Name
  -60,                                    !- Lower Limit Value
  200,                                    !- Upper Limit Value
  CONTINUOUS,                             !- Numeric Type
  Temperature;                            !- Unit Type

OS:ThermalZone,
  {c98f09d4-0198-48f3-95fd-76b91521253b}, !- Handle
  SPACE3-1 Thermal Zone,                  !- Name
  1,                                      !- Multiplier
  2.438400269,                            !- Ceiling Height {m}
  239.247360229,                          !- Volume {m3}
  ,                                       !- Floor Area {m2}
  ,                                       !- Zone Inside Convection Algorithm
  ,                                       !- Zone Outside Convection Algorithm
  ,                                       !- Zone Conditioning Equipment List Name
  {3ac85d28-226c-46cf-aa24-9afdc438f60f}, !- Zone Air Inlet Port List
  {ac2f8690-ebf1-4f8b-8edb-5696fed29f30}, !- Zone Air Exhaust Port List
  {b434ae1c-8c9e-404b-8bf3-b232574b0a74}, !- Zone Air Node Name
  {ded07593-3956-49c0-93fc-92e955484060}, !- Zone Return Air Port List
  ,                                       !- Primary Daylighting Control Name
  ,                                       !- Fraction of Zone Controlled by Primary Daylighting Control
  ,                                       !- Secondary Daylighting Control Name
  ,                                       !- Fraction of Zone Controlled by Secondary Daylighting Control
  ,                                       !- Illuminance Map Name
  {66123a93-892c-4ba9-a5e4-8c948fc20a7e}, !- Group Rendering Name
  {092884a1-8a06-4fed-96da-5a9af87ca5b3}, !- Thermostat Name
  No,                                     !- Use Ideal Air Loads
  ;                                       !- Humidistat Name

OS:Node,
  {4b029deb-1eaf-4d9c-8245-f1297ce13042}, !- Handle
  Node 2,                                 !- Name
  {b434ae1c-8c9e-404b-8bf3-b232574b0a74}, !- Inlet Port
  ;                                       !- Outlet Port

OS:Connection,
  {b434ae1c-8c9e-404b-8bf3-b232574b0a74}, !- Handle
  {40fcbb5e-20fa-44a1-9b34-8f3beacd2490}, !- Name
  {c98f09d4-0198-48f3-95fd-76b91521253b}, !- Source Object
  11,                                     !- Outlet Port
  {4b029deb-1eaf-4d9c-8245-f1297ce13042}, !- Target Object
  2;                                      !- Inlet Port

OS:PortList,
  {3ac85d28-226c-46cf-aa24-9afdc438f60f}, !- Handle
  {21c2f792-9bb4-4fc6-ac45-31ceb2996453}, !- Name
  {c98f09d4-0198-48f3-95fd-76b91521253b}; !- HVAC Component

OS:PortList,
  {ac2f8690-ebf1-4f8b-8edb-5696fed29f30}, !- Handle
  {807e787d-9d6a-4a93-909d-fafddf939529}, !- Name
  {c98f09d4-0198-48f3-95fd-76b91521253b}; !- HVAC Component

OS:PortList,
  {ded07593-3956-49c0-93fc-92e955484060}, !- Handle
  {689b5e03-0435-4411-93a6-4d77ec6103d6}, !- Name
  {c98f09d4-0198-48f3-95fd-76b91521253b}; !- HVAC Component

OS:Sizing:Zone,
  {76486b84-8d76-4b31-8093-d4f1e2267d9a}, !- Handle
  {c98f09d4-0198-48f3-95fd-76b91521253b}, !- Zone or ZoneList Name
  SupplyAirTemperature,                   !- Zone Cooling Design Supply Air Temperature Input Method
  14,                                     !- Zone Cooling Design Supply Air Temperature {C}
  11.11,                                  !- Zone Cooling Design Supply Air Temperature Difference {deltaC}
  SupplyAirTemperature,                   !- Zone Heating Design Supply Air Temperature Input Method
  50,                                     !- Zone Heating Design Supply Air Temperature {C}
  11.11,                                  !- Zone Heating Design Supply Air Temperature Difference {deltaC}
  0.0085,                                 !- Zone Cooling Design Supply Air Humidity Ratio {kg-H2O/kg-air}
  0.004,                                  !- Zone Heating Design Supply Air Humidity Ratio {kg-H2O/kg-air}
  0,                                      !- Zone Heating Sizing Factor
  0,                                      !- Zone Cooling Sizing Factor
  DesignDayWithLimit,                     !- Cooling Design Air Flow Method
  ,                                       !- Cooling Design Air Flow Rate {m3/s}
  ,                                       !- Cooling Minimum Air Flow per Zone Floor Area {m3/s-m2}
  ,                                       !- Cooling Minimum Air Flow {m3/s}
  ,                                       !- Cooling Minimum Air Flow Fraction
  DesignDay,                              !- Heating Design Air Flow Method
  ,                                       !- Heating Design Air Flow Rate {m3/s}
  ,                                       !- Heating Maximum Air Flow per Zone Floor Area {m3/s-m2}
  ,                                       !- Heating Maximum Air Flow {m3/s}
  ,                                       !- Heating Maximum Air Flow Fraction
  ,                                       !- Design Zone Air Distribution Effectiveness in Cooling Mode
  ,                                       !- Design Zone Air Distribution Effectiveness in Heating Mode
  No,                                     !- Account for Dedicated Outdoor Air System
  NeutralSupplyAir,                       !- Dedicated Outdoor Air System Control Strategy
  autosize,                               !- Dedicated Outdoor Air Low Setpoint Temperature for Design {C}
  autosize;                               !- Dedicated Outdoor Air High Setpoint Temperature for Design {C}

OS:ZoneHVAC:EquipmentList,
  {fb46c8d0-1ba6-411a-a675-d3177fe59394}, !- Handle
  Zone HVAC Equipment List 2,             !- Name
  {c98f09d4-0198-48f3-95fd-76b91521253b}; !- Thermal Zone

OS:ThermalZone,
  {6d2e05e5-4752-4e02-b2aa-263f6a676abc}, !- Handle
  SPACE4-1 Thermal Zone,                  !- Name
  1,                                      !- Multiplier
  2.438400269,                            !- Ceiling Height {m}
  103.311355591,                          !- Volume {m3}
  ,                                       !- Floor Area {m2}
  ,                                       !- Zone Inside Convection Algorithm
  ,                                       !- Zone Outside Convection Algorithm
  ,                                       !- Zone Conditioning Equipment List Name
  {e97666eb-6540-48f4-ac36-1eadd25f2bef}, !- Zone Air Inlet Port List
  {29efad72-30d9-4b30-bb72-c517ed79e262}, !- Zone Air Exhaust Port List
  {bee0c9b4-39b0-4d52-af36-e5ade7a731c9}, !- Zone Air Node Name
  {e68bba16-830c-4eae-bd8d-d66fbe121edd}, !- Zone Return Air Port List
  ,                                       !- Primary Daylighting Control Name
  ,                                       !- Fraction of Zone Controlled by Primary Daylighting Control
  ,                                       !- Secondary Daylighting Control Name
  ,                                       !- Fraction of Zone Controlled by Secondary Daylighting Control
  ,                                       !- Illuminance Map Name
  {7a26e333-93af-4671-8a4b-e61f57f328f8}, !- Group Rendering Name
  {cca11104-edd2-40e3-b56c-91e3846e8508}, !- Thermostat Name
  No,                                     !- Use Ideal Air Loads
  ;                                       !- Humidistat Name

OS:Node,
  {a96657d0-50f7-48d1-a961-55d7be49a64a}, !- Handle
  Node 3,                                 !- Name
  {bee0c9b4-39b0-4d52-af36-e5ade7a731c9}, !- Inlet Port
  ;                                       !- Outlet Port

OS:Connection,
  {bee0c9b4-39b0-4d52-af36-e5ade7a731c9}, !- Handle
  {9c748aa2-e74b-470c-ac84-5df649a6a492}, !- Name
  {6d2e05e5-4752-4e02-b2aa-263f6a676abc}, !- Source Object
  11,                                     !- Outlet Port
  {a96657d0-50f7-48d1-a961-55d7be49a64a}, !- Target Object
  2;                                      !- Inlet Port

OS:PortList,
  {e97666eb-6540-48f4-ac36-1eadd25f2bef}, !- Handle
  {6df0b8e5-fd0e-4d36-bd18-43456c463fec}, !- Name
  {6d2e05e5-4752-4e02-b2aa-263f6a676abc}; !- HVAC Component

OS:PortList,
  {29efad72-30d9-4b30-bb72-c517ed79e262}, !- Handle
  {33257fed-98c4-4399-8b3d-677a24aa15a8}, !- Name
  {6d2e05e5-4752-4e02-b2aa-263f6a676abc}; !- HVAC Component

OS:PortList,
  {e68bba16-830c-4eae-bd8d-d66fbe121edd}, !- Handle
  {4dd5acc9-fdba-4f7e-954d-a6f1894c848d}, !- Name
  {6d2e05e5-4752-4e02-b2aa-263f6a676abc}; !- HVAC Component

OS:Sizing:Zone,
  {b29edf7c-254b-4485-9909-4098c3c9df71}, !- Handle
  {6d2e05e5-4752-4e02-b2aa-263f6a676abc}, !- Zone or ZoneList Name
  SupplyAirTemperature,                   !- Zone Cooling Design Supply Air Temperature Input Method
  14,                                     !- Zone Cooling Design Supply Air Temperature {C}
  11.11,                                  !- Zone Cooling Design Supply Air Temperature Difference {deltaC}
  SupplyAirTemperature,                   !- Zone Heating Design Supply Air Temperature Input Method
  50,                                     !- Zone Heating Design Supply Air Temperature {C}
  11.11,                                  !- Zone Heating Design Supply Air Temperature Difference {deltaC}
  0.0085,                                 !- Zone Cooling Design Supply Air Humidity Ratio {kg-H2O/kg-air}
  0.004,                                  !- Zone Heating Design Supply Air Humidity Ratio {kg-H2O/kg-air}
  0,                                      !- Zone Heating Sizing Factor
  0,                                      !- Zone Cooling Sizing Factor
  DesignDayWithLimit,                     !- Cooling Design Air Flow Method
  ,                                       !- Cooling Design Air Flow Rate {m3/s}
  ,                                       !- Cooling Minimum Air Flow per Zone Floor Area {m3/s-m2}
  ,                                       !- Cooling Minimum Air Flow {m3/s}
  ,                                       !- Cooling Minimum Air Flow Fraction
  DesignDay,                              !- Heating Design Air Flow Method
  ,                                       !- Heating Design Air Flow Rate {m3/s}
  ,                                       !- Heating Maximum Air Flow per Zone Floor Area {m3/s-m2}
  ,                                       !- Heating Maximum Air Flow {m3/s}
  ,                                       !- Heating Maximum Air Flow Fraction
  ,                                       !- Design Zone Air Distribution Effectiveness in Cooling Mode
  ,                                       !- Design Zone Air Distribution Effectiveness in Heating Mode
  No,                                     !- Account for Dedicated Outdoor Air System
  NeutralSupplyAir,                       !- Dedicated Outdoor Air System Control Strategy
  autosize,                               !- Dedicated Outdoor Air Low Setpoint Temperature for Design {C}
  autosize;                               !- Dedicated Outdoor Air High Setpoint Temperature for Design {C}

OS:ZoneHVAC:EquipmentList,
  {826cee50-942a-4a4c-9218-8834abdca071}, !- Handle
  Zone HVAC Equipment List 3,             !- Name
  {6d2e05e5-4752-4e02-b2aa-263f6a676abc}; !- Thermal Zone

OS:ThermalZone,
  {273e90bc-9a11-4f54-8eb6-5aef876a6503}, !- Handle
  PLENUM-1 Thermal Zone,                  !- Name
  1,                                      !- Multiplier
  0.609600067,                            !- Ceiling Height {m}
  283.2,                                  !- Volume {m3}
  ,                                       !- Floor Area {m2}
  ,                                       !- Zone Inside Convection Algorithm
  ,                                       !- Zone Outside Convection Algorithm
  ,                                       !- Zone Conditioning Equipment List Name
  {3b4f0492-6fbe-4533-8cae-58561f8a8b51}, !- Zone Air Inlet Port List
  {c8554510-722e-448a-b985-da9b9f994472}, !- Zone Air Exhaust Port List
  {4ef8e130-3aaf-4b68-9af6-2e947bd8a893}, !- Zone Air Node Name
  {1b0df9f8-71ba-4931-8504-868378190871}, !- Zone Return Air Port List
  ,                                       !- Primary Daylighting Control Name
  ,                                       !- Fraction of Zone Controlled by Primary Daylighting Control
  ,                                       !- Secondary Daylighting Control Name
  ,                                       !- Fraction of Zone Controlled by Secondary Daylighting Control
  ,                                       !- Illuminance Map Name
  {4bdfc8c4-eaad-43bd-a86f-4c530729c596}, !- Group Rendering Name
  ,                                       !- Thermostat Name
  No,                                     !- Use Ideal Air Loads
  ;                                       !- Humidistat Name

OS:Node,
  {42dc7fcb-be1d-4379-98fc-05f524c047c2}, !- Handle
  Node 4,                                 !- Name
  {4ef8e130-3aaf-4b68-9af6-2e947bd8a893}, !- Inlet Port
  ;                                       !- Outlet Port

OS:Connection,
  {4ef8e130-3aaf-4b68-9af6-2e947bd8a893}, !- Handle
  {90a4c760-4aff-44d0-9949-a3f631ebb43c}, !- Name
  {273e90bc-9a11-4f54-8eb6-5aef876a6503}, !- Source Object
  11,                                     !- Outlet Port
  {42dc7fcb-be1d-4379-98fc-05f524c047c2}, !- Target Object
  2;                                      !- Inlet Port

OS:PortList,
  {3b4f0492-6fbe-4533-8cae-58561f8a8b51}, !- Handle
  {507c276c-6fc6-4230-a9b3-b67e8482bc2d}, !- Name
  {273e90bc-9a11-4f54-8eb6-5aef876a6503}; !- HVAC Component

OS:PortList,
  {c8554510-722e-448a-b985-da9b9f994472}, !- Handle
  {b94c14af-cb83-4693-9051-ee0d5b401f1a}, !- Name
  {273e90bc-9a11-4f54-8eb6-5aef876a6503}; !- HVAC Component

OS:PortList,
  {1b0df9f8-71ba-4931-8504-868378190871}, !- Handle
  {24a0ddcf-a177-4aa2-bc36-cd36791fdb61}, !- Name
  {273e90bc-9a11-4f54-8eb6-5aef876a6503}; !- HVAC Component

OS:Sizing:Zone,
  {943b5126-86d6-4fcb-bb40-0f488269d19a}, !- Handle
  {273e90bc-9a11-4f54-8eb6-5aef876a6503}, !- Zone or ZoneList Name
  SupplyAirTemperature,                   !- Zone Cooling Design Supply Air Temperature Input Method
  14,                                     !- Zone Cooling Design Supply Air Temperature {C}
  11.11,                                  !- Zone Cooling Design Supply Air Temperature Difference {deltaC}
  SupplyAirTemperature,                   !- Zone Heating Design Supply Air Temperature Input Method
  40,                                     !- Zone Heating Design Supply Air Temperature {C}
  11.11,                                  !- Zone Heating Design Supply Air Temperature Difference {deltaC}
  0.0085,                                 !- Zone Cooling Design Supply Air Humidity Ratio {kg-H2O/kg-air}
  0.008,                                  !- Zone Heating Design Supply Air Humidity Ratio {kg-H2O/kg-air}
  ,                                       !- Zone Heating Sizing Factor
  ,                                       !- Zone Cooling Sizing Factor
  DesignDay,                              !- Cooling Design Air Flow Method
  ,                                       !- Cooling Design Air Flow Rate {m3/s}
  ,                                       !- Cooling Minimum Air Flow per Zone Floor Area {m3/s-m2}
  ,                                       !- Cooling Minimum Air Flow {m3/s}
  ,                                       !- Cooling Minimum Air Flow Fraction
  DesignDay,                              !- Heating Design Air Flow Method
  ,                                       !- Heating Design Air Flow Rate {m3/s}
  ,                                       !- Heating Maximum Air Flow per Zone Floor Area {m3/s-m2}
  ,                                       !- Heating Maximum Air Flow {m3/s}
  ,                                       !- Heating Maximum Air Flow Fraction
  ,                                       !- Design Zone Air Distribution Effectiveness in Cooling Mode
  ,                                       !- Design Zone Air Distribution Effectiveness in Heating Mode
  No,                                     !- Account for Dedicated Outdoor Air System
  NeutralSupplyAir,                       !- Dedicated Outdoor Air System Control Strategy
  autosize,                               !- Dedicated Outdoor Air Low Setpoint Temperature for Design {C}
  autosize;                               !- Dedicated Outdoor Air High Setpoint Temperature for Design {C}

OS:ZoneHVAC:EquipmentList,
  {9aed58f2-cd8d-4bc8-9bdc-012a9b9305a9}, !- Handle
  Zone HVAC Equipment List 4,             !- Name
  {273e90bc-9a11-4f54-8eb6-5aef876a6503}; !- Thermal Zone

OS:ThermalZone,
  {4159b548-c1f7-467e-b05f-b463afb26782}, !- Handle
  SPACE2-1 Thermal Zone,                  !- Name
  1,                                      !- Multiplier
  2.438400269,                            !- Ceiling Height {m}
  103.311355591,                          !- Volume {m3}
  ,                                       !- Floor Area {m2}
  ,                                       !- Zone Inside Convection Algorithm
  ,                                       !- Zone Outside Convection Algorithm